$ NASTRAN input file created by the MSC MSC/NASTRAN input file
$ translator ( MSC/PATRAN Version 9.0 ) on February  12, 2002 at
$ 12:29:59.
ASSIGN OUTPUT2 = 'modal.op2', UNIT = 12
$ Direct Text Input for File Management Section
$ Normal Modes Analysis, Database
SOL 103
TIME 600
$ Direct Text Input for Executive Control
CEND
SEALL = ALL
SUPER = ALL
TITLE = MSC/NASTRAN job created on 13-Jul-99 at 12:16:17
ECHO = NONE
MAXLINES = 999999999
$ Direct Text Input for Global Case Control Data
SUBCASE 1
$ Subcase name : Default
   SUBTITLE=Default
   METHOD = 1
   VECTOR(SORT1,REAL)=ALL
   SPCFORCES(SORT1,REAL)=ALL
BEGIN BULK
PARAM    POST    -1
PARAM   COUPMASS 1
PARAM    WTMASS  .00259
PARAM    GRDPNT  0
PARAM,NOCOMPS,-1
PARAM   PRTMAXIM YES
EIGRL    1                       20      0
$ Direct Text Input for Bulk Data
$ Elements and Element Properties for region : P_SET.101
PSHELL   101     101     .2      101             101
$ Pset: "P_SET.101" will be imported as: "pshell.101"
CQUAD4   1       101     3       1       18      19              0.
CQUAD4   2       101     1       2       17      18              0.
CQUAD4   3       101     2       4       20      17              0.
CQUAD4   4       101     5       3       19      21              0.
CQUAD4   5       101     4       6       22      20              0.
CQUAD4   6       101     7       5       21      23              0.
CQUAD4   7       101     6       8       24      22              0.
CQUAD4   8       101     9       7       23      25              0.
CQUAD4   9       101     8       10      26      24              0.
CQUAD4   10      101     11      9       25      27              0.
CQUAD4   11      101     10      12      28      26              0.
CQUAD4   12      101     13      11      27      29              0.
CQUAD4   13      101     12      14      30      28              0.
CQUAD4   14      101     15      13      29      31              0.
CQUAD4   15      101     14      16      32      30              0.
CQUAD4   16      101     16      15      31      32              0.
CQUAD4   17      101     17      20      35      33              0.
CQUAD4   18      101     18      17      33      34              0.
CQUAD4   19      101     19      18      34      36              0.
CQUAD4   20      101     21      19      36      37              0.
$ ... 300 like lines cut
$ Elements and Element Properties for region : P_SET.102
CONM2    501     501             1000.   0.      0.      0.
         0.      0.      0.      0.      0.      0.
$ Referenced Material Records
$ Material Record : MATRL.101 (aluminum)
$ Description of Material : Created by neutral file import
$ Note: Nastran will use E and nu but not G if all 3 specified.
$        MID     E (psi) G (psi) nu      rho(lb/in^2)
$=======2=======3=======4=======5=======6=======7=======8=======9=======0
MAT1     101     1.+7            .35     .1
$ Multipoint Constraints of the Entire Model
$ ID conflict : the PATRAN MPC ID was 501
RBE2     503     501     123456  1       2       3       4       5
         6       7       8       9       10      11      12      13
         14      15      16
RBE2     502     502     123456  321     322     323     324     325
         326     327     328     329     330     331     332     333
         334     335     336
$ Nodes of the Entire Model
GRID     1               1.      0.      0.
GRID     2               .92388  .382683 0.
GRID     3               .923879-.382683 0.
GRID     4               .707107 .707107 0.
GRID     5               .707107-.707107 0.
GRID     6               .382683 .92388  0.
GRID     7               .382683-.92388  0.
GRID     8               0.      1.      0.
GRID     9               0.     -1.      0.
GRID     10             -.382683 .92388  0.
GRID     11             -.382683-.92388  0.
GRID     12             -.707107 .707107 0.
GRID     13             -.707107-.707107 0.
GRID     14             -.92388  .382683 0.
GRID     15             -.92388 -.382683 0.
GRID     16             -1.      0.      0.
GRID     17              .92388  .382683 .5
GRID     18              1.      0.      .5
GRID     19              .923879-.382683 .5
GRID     20              .707107 .707107 .5
$ ... 318 like lines cut
$ Loads for Load Case : Default
$ Referenced Coordinate Frames
ENDDATA 23d66692
